NASTRAN SYSTEM(442)=-1,SYSTEM(319)=1
ID Sphere,FEMAP
SOL SEMODES
CEND
  TITLE = Example
  ECHO = NONE
  DISPLACEMENT(PRINT) = ALL
  SPCFORCE(PRINT) = ALL
  ESE(PRINT) = ALL
  METHOD = 1
  MEFFMASS(PLOT,GRID=0,PARTFAC,MEFFM,MEFFW,FRACSUM,SUMMARY) = YES
BEGIN BULK
$ ***************************************************************************
$   Written by : Femap
$   Version    : 2020.1.2
$   Translator : Simcenter Nastran
$   From Model : C:\sblike\Misc\ForJoe\Sphere.modfem
$   Date       : Tue Apr 27 09:40:28 2021
$   Output To  : C:\sblike\Misc\ForJoe\
$ ***************************************************************************
$
PARAM,PRGPST,YES
PARAM,POST,-1
PARAM,OGEOM,NO
PARAM,AUTOSPC,YES
PARAM,GRDPNT,0
EIGRL          1                      10       0                    MASS
CORD2C         1       0      0.      0.      0.      0.      0.      1.+FEMAPC1
+FEMAPC1      1.      0.      1.        
CORD2S         2       0      0.      0.      0.      0.      0.      1.+FEMAPC2
+FEMAPC2      1.      0.      1.        
$ Femap Property 1 : SOLID Property
PSOLID         1       1       0        
$ Femap Material 1 : Titanium, Pure
MAT1           1  1.55+7         .1923084.2227-4  4.85-6     70.        
MAT4           12.7556-4  42.5044.2227-4                        
GRID           1       0      0.      0.      1.       0
GRID           2       0      0.-.258819.9659258       0
GRID           3       0      0.     -.5.8660254       0
GRID           4       0      0.-.707107.7071068       0
GRID           5       0      0.-.866025      .5       0
GRID           6       0      0.-.965926 .258819       0
GRID           7       0      0.     -1.      0.       0
GRID           8       0 .258819-.965926      0.       0
GRID           9       0      .5-.866025      0.       0
GRID          10       0.7071068-.707107      0.       0
GRID          11       0.8660254     -.5      0.       0
GRID          12       0.9659258-.258819      0.       0
GRID          13       0      1.      0.      0.       0
GRID          14       0.9659258      0. .258819       0
GRID          15       0.8660254      0.      .5       0
GRID          16       0.7071068      0..7071068       0
GRID          17       0      .5      0..8660254       0
GRID          18       0 .258819      0..9659258       0
GRID          19       0.5773169 -.57727.5774636       0
GRID          20       0.4435631-.633652 .633827       0
$ ... 2334 like lines cut
CTETRA       433       1     163     219     220     221    1010    1011+       
+           1012    1013    1014    1015
CTETRA       434       1     163     220     164     221    1012    1016+       
+            809    1013    1015    1017
CTETRA       435       1      83      96      94     222     608     607+       
+            599    1018    1019    1020
CTETRA       436       1     160     214     204     223     980     984+       
+            987    1021    1022    1023
CTETRA       437       1     169     170     224     221     790    1024+       
+           1025    1026    1027    1028
CTETRA       438       1     164     220     172     221    1016    1029+       
+            807    1017    1015    1030
CTETRA       439       1      77     172     220     225     802    1029+       
+           1031    1032    1033    1034
CTETRA       440       1     169     224     226     221    1025    1035+       
+           1036    1026    1028    1037
CTETRA       441       1     220     226     225     221    1038    1039+       
+           1034    1015    1037    1040
CTETRA       442       1     227     228     229     230    1041    1042+       
+           1043    1044    1045    1046
CTETRA       443       1     231     232     233     230    1047    1048+       
+           1049    1050    1051    1052
CTETRA       444       1      41      67      42     234     491     490+       
+            489    1053    1054    1055
CTETRA       445       1     235     236     237     230    1056    1057+       
+           1058    1059    1060    1061
CTETRA       446       1     233     237     238     230    1062    1063+       
+           1064    1052    1061    1065
CTETRA       447       1     235     233     232     230    1066    1048+       
+           1067    1059    1052    1051
CTETRA       448       1     239     240     241     242    1068    1069+       
+           1070    1071    1072    1073
CTETRA       449       1     243     244     245     242    1074    1075+       
+           1076    1077    1078    1079
CTETRA       450       1     246     247     248     242    1080    1081+       
+           1082    1083    1084    1085
CTETRA       451       1     249     250     239     242    1086    1087+       
+           1088    1089    1090    1071
CTETRA       452       1     251     237     244     242    1091    1092+       
+           1093    1094    1095    1078
$ ... 2794 like lines cut
ENDDATA 070bdccf
